Version 4
SHEET 1 6148 680
WIRE -944 -128 -944 -208
WIRE -784 -128 -784 -208
WIRE -624 -128 -624 -208
WIRE -192 -112 -192 -208
WIRE 704 -112 704 -208
WIRE -944 32 -944 -48
WIRE -784 32 -784 -48
WIRE -624 32 -624 -48
WIRE 128 32 128 -208
WIRE 128 32 64 32
WIRE -192 48 -192 -32
WIRE -128 48 -192 48
WIRE 64 48 64 32
WIRE 128 112 64 112
WIRE -128 144 -192 144
WIRE 80 144 64 144
WIRE 704 192 704 -32
WIRE 704 192 672 192
WIRE -192 208 -192 144
WIRE -432 256 -544 256
WIRE -256 256 -352 256
WIRE 128 272 128 112
WIRE 480 272 128 272
WIRE 624 272 480 272
WIRE 704 288 672 288
WIRE 80 304 80 144
WIRE 480 320 480 272
WIRE -192 448 -192 304
WIRE 80 448 80 384
WIRE 704 448 704 288
WIRE 480 464 480 400
FLAG -192 448 0
FLAG -192 -208 5V
IOPIN -192 -208 In
FLAG 128 -208 7V4
IOPIN 128 -208 In
FLAG -544 256 3V3_Sinal
IOPIN -544 256 In
FLAG 704 448 0
FLAG 704 -208 7V4
IOPIN 704 -208 In
FLAG 80 448 0
FLAG -624 32 0
FLAG -784 32 0
FLAG -784 -208 7V4
IOPIN -784 -208 Out
FLAG -624 -208 3V3_Sinal
IOPIN -624 -208 Out
FLAG -944 32 0
FLAG -944 -208 5V
IOPIN -944 -208 Out
FLAG 480 464 0
SYMBOL res -336 240 R90
WINDOW 0 0 56 VBottom 2
WINDOW 3 32 56 VTop 2
SYMATTR InstName R1
SYMATTR Value 220
SYMBOL res -176 -16 R180
WINDOW 0 36 76 Left 2
WINDOW 3 36 40 Left 2
SYMATTR InstName R2
SYMATTR Value 82
SYMBOL npn -256 208 R0
SYMATTR InstName Q1
SYMATTR Value BC548B
SYMBOL Optos\\4N25 -32 112 R0
SYMATTR InstName U1
SYMBOL res 64 288 R0
SYMATTR InstName R5
SYMATTR Value 100k
SYMBOL voltage -784 -144 R0
WINDOW 123 0 0 Left 0
WINDOW 39 0 0 Left 0
SYMATTR InstName V1
SYMATTR Value 7.4
SYMBOL voltage -624 -144 R0
WINDOW 123 0 0 Left 0
WINDOW 39 0 0 Left 0
SYMATTR InstName V2
SYMATTR Value PULSE(0 3.3 5 0.01 0.01 10)
SYMBOL voltage -944 -144 R0
WINDOW 123 0 0 Left 0
WINDOW 39 0 0 Left 0
SYMATTR InstName V3
SYMATTR Value 5
SYMBOL res 688 -128 R0
SYMATTR InstName Skib2
SYMATTR Value 1.3
SYMBOL nmos 624 192 R0
SYMATTR InstName M1
SYMATTR Value IRFZ44N
SYMBOL res 464 304 R0
SYMATTR InstName R3
SYMATTR Value 100k
TEXT -984 416 Left 2 !.tran 0 10 0
TEXT -984 496 Left 2 !.model BC548B NPN\n+Is=7.049f Xti=3 Eg=1.11 Vaf=62.79 Bf=374.6 Ise=68f Ne=1.576 Ikf=81.57m \n+Nk=.4767 Xtb=1.5 Br=1 Isc=12.4f Nc=1.835 Ikr=3.924 Rc=.9747 Cjc=5.25p \n+Mjc=.3147 Vjc=.5697 Fc=.5 Cje=11.5p Mje=.6715 Vje=.5 Tr=10n Tf=410.2p \n+Itf=1.491 Xtf=40.06 Vtf=10 Vceo=30 Icrating=100m mfg=Philips
TEXT -984 456 Left 2 !.inc irlz44n.spi
TEXT -976 -384 Left 2 ;Fontes
RECTANGLE Normal -272 80 -992 -400
RECTANGLE Normal 832 656 -1024 -432
