Version 4
SHEET 1 6148 680
WIRE 128 -128 128 -208
WIRE -192 -112 -192 -208
WIRE -928 -64 -928 -144
WIRE -752 -64 -752 -144
WIRE -592 -64 -592 -144
WIRE 704 -32 704 -208
WIRE -192 48 -192 -32
WIRE -128 48 -192 48
WIRE 128 48 128 -48
WIRE 128 48 64 48
WIRE -928 96 -928 16
WIRE -752 96 -752 16
WIRE -592 96 -592 16
WIRE 128 112 64 112
WIRE -128 144 -192 144
WIRE 80 144 64 144
WIRE 704 192 704 48
WIRE 704 192 672 192
WIRE -192 208 -192 144
WIRE 128 240 128 112
WIRE 240 240 128 240
WIRE 448 240 240 240
WIRE 608 240 448 240
WIRE -432 256 -544 256
WIRE -256 256 -352 256
WIRE 704 288 672 288
WIRE 80 304 80 144
WIRE 240 304 240 240
WIRE 448 320 448 240
WIRE -192 448 -192 304
WIRE 80 448 80 384
WIRE 240 448 240 384
WIRE 448 448 448 384
WIRE 704 448 704 288
FLAG 448 448 0
FLAG 240 448 0
FLAG -192 448 0
FLAG -192 -208 3V3_Alim
IOPIN -192 -208 In
FLAG 128 -208 7V4
IOPIN 128 -208 In
FLAG -544 256 3V3_Sinal
IOPIN -544 256 In
FLAG 704 448 0
FLAG 704 -208 7V4
IOPIN 704 -208 In
FLAG 80 448 0
FLAG -592 96 0
FLAG -752 96 0
FLAG -752 -144 7V4
IOPIN -752 -144 Out
FLAG -592 -144 3V3_Sinal
IOPIN -592 -144 Out
FLAG -928 96 0
FLAG -928 -144 3V3_Alim
IOPIN -928 -144 Out
SYMBOL res -336 240 R90
WINDOW 0 0 56 VBottom 2
WINDOW 3 32 56 VTop 2
SYMATTR InstName R1
SYMATTR Value 220
SYMBOL res -176 -16 R180
WINDOW 0 36 76 Left 2
WINDOW 3 36 40 Left 2
SYMATTR InstName R2
SYMATTR Value 43
SYMBOL npn -256 208 R0
SYMATTR InstName Q1
SYMATTR Value BC548B
SYMBOL res 224 288 R0
SYMATTR InstName R3
SYMATTR Value 100k
SYMBOL res 112 -144 R0
SYMATTR InstName R4
SYMATTR Value 220
SYMBOL npn 608 192 R0
SYMATTR InstName Q2
SYMATTR Value TIP121
SYMBOL Optos\\4N25 -32 112 R0
SYMATTR InstName U1
SYMBOL res 64 288 R0
SYMATTR InstName R6
SYMATTR Value 100k
SYMBOL cap 432 320 R0
SYMATTR InstName C1
SYMATTR Value 1n
SYMBOL voltage -752 -80 R0
WINDOW 123 0 0 Left 0
WINDOW 39 0 0 Left 0
SYMATTR InstName V1
SYMATTR Value 7.4
SYMBOL voltage -592 -80 R0
WINDOW 123 0 0 Left 0
WINDOW 39 0 0 Left 0
SYMATTR InstName V2
SYMATTR Value PULSE(0 3.3 5 0.01 0.01 10)
SYMBOL voltage -928 -80 R0
WINDOW 123 0 0 Left 0
WINDOW 39 0 0 Left 0
SYMATTR InstName V3
SYMATTR Value 3
SYMBOL res 688 -48 R0
SYMATTR InstName Skib
SYMATTR Value 1.3
TEXT -728 160 Left 2 !.tran 0 10 0
TEXT 832 -224 Left 2 !.MODEL TIP121 npn\n+IS=3.29109e-14 BF=391.787 NF=0.894469 VAF=33.1384\n+IKF=0.198445 ISE=1.21403e-10 NE=1.6375 BR=0.1\n+NR=1.34795 VAR=135.277 IKR=0.137744 ISC=1.01287e-13\n+NC=1.97483 RB=4.90772 IRB=0.200762 RBM=4.90772\n+RE=0.0826202 RC=0.413101 XTB=0.584577 XTI=2.92564 EG=1.05\n+CJE=2.09731e-10 VJE=0.95 MJE=0.23 TF=1e-09\n+XTF=1 VTF=10 ITF=0.01 CJC=1.53283e-10\n+VJC=0.95 MJC=0.23 XCJC=0.9 FC=0.5\n+TR=1e-07 PTF=0 KF=0 AF=1
TEXT 832 96 Left 2 !.model BC548B NPN\n+Is=7.049f Xti=3 Eg=1.11 Vaf=62.79 Bf=374.6 Ise=68f Ne=1.576 Ikf=81.57m \n+Nk=.4767 Xtb=1.5 Br=1 Isc=12.4f Nc=1.835 Ikr=3.924 Rc=.9747 Cjc=5.25p \n+Mjc=.3147 Vjc=.5697 Fc=.5 Cje=11.5p Mje=.6715 Vje=.5 Tr=10n Tf=410.2p \n+Itf=1.491 Xtf=40.06 Vtf=10 Vceo=30 Icrating=100m mfg=Philips
