Version 4
SHEET 1 6148 680
WIRE -944 -128 -944 -208
WIRE -784 -128 -784 -208
WIRE -624 -128 -624 -208
WIRE 688 -96 688 -192
WIRE -944 32 -944 -48
WIRE -784 32 -784 -48
WIRE -624 32 -624 -48
WIRE 48 64 -64 64
WIRE 272 64 128 64
WIRE 528 64 528 -192
WIRE 528 64 464 64
WIRE 528 128 464 128
WIRE 272 160 208 160
WIRE 480 160 464 160
WIRE 688 208 688 -16
WIRE 528 288 528 128
WIRE 608 288 528 288
WIRE 640 288 608 288
WIRE 480 320 480 160
WIRE 608 336 608 288
WIRE 480 464 480 400
WIRE 608 464 608 416
WIRE 688 464 688 304
FLAG -624 32 0
FLAG -784 32 0
FLAG -784 -208 3V7
IOPIN -784 -208 Out
FLAG -624 -208 3V3_Sinal
IOPIN -624 -208 Out
FLAG -944 32 0
FLAG -944 -208 5V
IOPIN -944 -208 Out
FLAG 528 -192 3V7
IOPIN 528 -192 In
FLAG -64 64 3V3_Sinal
IOPIN -64 64 In
FLAG 688 464 0
FLAG 688 -192 3V7
IOPIN 688 -192 In
FLAG 480 464 0
FLAG 608 464 0
FLAG 208 160 0
SYMBOL voltage -784 -144 R0
WINDOW 123 0 0 Left 0
WINDOW 39 0 0 Left 0
SYMATTR InstName V1
SYMATTR Value 3.7
SYMBOL voltage -624 -144 R0
WINDOW 123 0 0 Left 0
WINDOW 39 0 0 Left 0
SYMATTR InstName V2
SYMATTR Value PULSE(0 3.3 5 0.01 0.01 10)
SYMBOL voltage -944 -144 R0
WINDOW 123 0 0 Left 0
WINDOW 39 0 0 Left 0
SYMATTR InstName V3
SYMATTR Value 5
SYMBOL res 144 48 R90
WINDOW 0 0 56 VBottom 2
WINDOW 3 32 56 VTop 2
SYMATTR InstName R4
SYMATTR Value 100
SYMBOL Optos\\4N25 368 128 R0
SYMATTR InstName U2
SYMBOL res 464 304 R0
SYMATTR InstName R7
SYMATTR Value 100k
SYMBOL res 672 -112 R0
SYMATTR InstName Squib1
SYMATTR Value 1
SYMBOL res 592 320 R0
SYMATTR InstName R8
SYMATTR Value 100k
SYMBOL nmos 640 208 R0
SYMATTR InstName M2
SYMATTR Value IRLZ44N
SYMATTR Prefix X
TEXT -984 416 Left 2 !.tran 0 10 0
TEXT -984 456 Left 2 !..include ./irlz44n.spi
TEXT -976 -384 Left 2 ;Fontes
RECTANGLE Normal -272 80 -992 -400
RECTANGLE Normal 832 656 -1024 -432
